<?xml version="1.0" encoding="UTF-8"?>

<!-- generated on 2024-03-18 13:46:03.778679 by randomTrips.py v1_19_0+0000-baa66a0f364
<configuration>
    <net-file value="commerce.net.xml"/>
    <route-file value="commerce.rou.xml"/>
    <length value="True"/>
    <end value="100.0"/>
</configuration>
-->

<!-- generated on 2024-03-18 13:46:03 by Eclipse SUMO duarouter Version 1.19.0
<configuration xmlns:xsi="http://www.w3.org/2001/XMLSchema-instance" xsi:noNamespaceSchemaLocation="http://sumo.dlr.de/xsd/duarouterConfiguration.xsd">

    <input>
        <net-file value="commerce.net.xml"/>
        <route-files value="trips.trips.xml"/>
    </input>

    <output>
        <output-file value="commerce.rou.xml"/>
        <alternatives-output value="NUL"/>
    </output>

    <time>
        <begin value="0"/>
        <end value="100.0"/>
    </time>

    <report>
        <no-warnings value="true"/>
        <ignore-errors value="true"/>
        <no-step-log value="true"/>
    </report>

</configuration>
-->

<routes xmlns:xsi="http://www.w3.org/2001/XMLSchema-instance" xsi:noNamespaceSchemaLocation="http://sumo.dlr.de/xsd/routes_file.xsd">
    <vehicle id="0" depart="0.00">
        <route edges="35349886#21 35349886#22 -37583634#14 -37583634#13 -37583634#12 -37583634#11 -37583634#10 -37583634#9 -37583634#8 -37583634#7 -37583634#6 -37583634#5 -37583634#4 -37583634#3 -37583634#2 -37583634#1 -37583634#0 37583635#0 37583635#1 38009925#0 38009925#1 731227790#0 731227790#1 731227790#2 731227790#3 161268513 731227793#0 731227793#1 731227796#0 731227796#1 473571253#0 473571253#1 731227797#0 731227797#1 731227797#2 493155711#0 493155711#1 38014001#0 38014001#1 -117597589#1 -117597589#0 -473441984 -299677587#4 -299677587#3 -299677587#2"/>
    </vehicle>
    <vehicle id="1" depart="1.00">
        <route edges="-37583528#2 -37583528#1 -37583528#0 -37583509 37583519 -37583512#1 -37583512#0 -37583622 37583629#0 37583629#1 302357638#0 302357638#1 -37583616#1 -37583616#0 302357639#0 302357639#1 302357639#2 302357572#0 302357572#1 -36827701#3 -36827701#2"/>
    </vehicle>
    <vehicle id="2" depart="2.00">
        <route edges="37583509 -37583518#1 -37583518#0 37583634#6 37583634#7 37583634#8 37583634#9 37583634#10 37583634#11 37583634#12 37583634#13 37583634#14 37583634#15 -35346671#6 -35346671#5 -35346671#4 -35346671#3 -35346671#2 -35346671#1 -831784835#3 -831784835#2 35351533#0 35351533#1 35351533#2"/>
    </vehicle>
    <vehicle id="4" depart="4.00">
        <route edges="118619654#1 33562390#0 35348291 35351074 35348664#0 35348664#1 -38013963 35347407 -435252119 -38011023 38011021#0 38011021#1 731227798#0 731227798#1 731227795#0 731227795#1 731227792#0 731227792#1 33562391#0 33562391#1 33562391#2 37583636#0 37583636#1 37583634#0 37583634#1 37583634#2 37583634#3 37583634#4 37583634#5 37583634#6 37583634#7 37583634#8 37583634#9 37583634#10 37583634#11 37583634#12 37583634#13 37583634#14 37583634#15 37583634#16 302357641#0 302357641#1 -37583622 37583629#0 37583629#1 302357638#0 302357638#1 -37583616#1 -37583616#0 302357639#0 -302357639#0"/>
    </vehicle>
    <vehicle id="5" depart="5.00">
        <route edges="-37583507 37583508 37583513#0 37583513#1 -37583634#3 -37583634#2 -37583634#1 -37583634#0 37583635#0 37583635#1 38009925#0 38009925#1 731227790#0 731227790#1 731227790#2 731227790#3 161268513 731227793#0 731227793#1 731227796#0 731227796#1 473571253#0 473571253#1 731227797#0 38011017#0 38011017#1 35347614#0 35347614#1 35347614#2 38011023 435252119 38013962#0 38013962#1 38013963 118619654#0 118619654#1 33562390#0 33562390#1 33562390#2 33562390#3 38013966#0 38013966#1 56660761 302520559#0"/>
    </vehicle>
    <vehicle id="6" depart="6.00">
        <route edges="-300671859#2 -300671859#1 -300671859#0 606898109 -606898109 300671859#0 300671859#1 300671859#2 300671859#3 300671859#4 874442320#0 874442320#1 -874442322#2 874442316#0 874442316#1 -56660770#2 -56660770#1 -56660770#0 601502111#0 601502111#1 601502111#2 184166310#0 184166310#1 184166310#2 493155719#0 493155719#1 493155719#2 493155719#3 163045288#0 163045288#1 163045288#2 163045288#3 163045288#4 731227798#0 731227798#1 731227795#0 731227795#1 -473571252 -473571254 -148785873#1 -148785873#0 -148785872#2 -148785872#1 -148785872#0 117597590#0 117597590#1 117597590#2 117597590#3 -225949287#1 -225949287#0 35352316#0 35352316#1 35352316#2 -35352316#2 -35352316#1"/>
    </vehicle>
    <vehicle id="8" depart="8.00">
        <route edges="-37583507 37583508 37583513#0 37583513#1 -37583634#3 -37583634#2 -37583634#1 -37583634#0 37583635#0 37583635#1 38009925#0 38009925#1 731227790#0 731227790#1 731227790#2 731227790#3 161268513 731227793#0 731227793#1 731227796#0 731227796#1 473571253#0 473571253#1 731227797#0 38011017#0 38011017#1 35347614#0 35347614#1 35347614#2 38011023 435252119 38013962#0 38013962#1 38013963 118619654#0 118619654#1 38013965#0 38013965#1 38013964#0 38013964#1 38013964#2 35347892#0 35347892#1 35347892#2 35347892#3 35347892#4 35347892#5 35347892#6 35347892#7 35347892#8"/>
    </vehicle>
    <vehicle id="9" depart="9.00">
        <route edges="37583575#4 37583575#5 -37583575#5 -37583575#4 -37583575#3 -37583575#2 -37583575#1 -37583575#0 -505867954#1 -505867954#0 -37583581#9 -37583581#8 -37583581#7 -37583581#6 -37583581#5 -37583581#4 -37583581#3 -37583581#2 -37583581#1 -37583581#0 -731227794 -37583577#1 -37583577#0 731227792#0 731227792#1 33562391#0 33562391#1 33562391#2 37583636#0 37583636#1 37583634#0 37583634#1 37583634#2 -1168776169#2 -1168776169#1 1168776170#0 -1168776171"/>
    </vehicle>
    <vehicle id="10" depart="10.00">
        <route edges="37583575#33 37583575#34 37583575#35 37583575#36 37583575#37 37583575#38 37583575#39 587969882#0 587969882#1 56660712#0 56660712#1 56660712#2 56660712#3 56660712#4 56660712#5 56660712#6 -56660726 56660774#0 56660774#1 56660765 56660744#0 56660744#1 302520560#0 302520560#1 -38013966#1 -38013966#0 35346736 302357746#0 302357746#1 35351074 35348664#0 35348664#1 -38013963 35347407 -435252119 -38011023 38011021#0 38011021#1 731227798#0 731227798#1 731227795#0 731227795#1 -473571252 -473571254 -148785873#1 -148785873#0 -148785872#2 -148785872#1 -148785872#0 117597590#0 117597590#1 117597590#2 117597590#3 -225949287#1 -225949287#0 35352316#0 35352316#1 35352316#2 35352316#3 35352316#4 35352316#5 35352316#6 35352316#7 35352316#8"/>
    </vehicle>
    <vehicle id="11" depart="11.00">
        <route edges="-38009839#3 -38009839#2 -38009839#1 -38009839#0 -700985821#6 -700985821#5 -700985821#4 -700985821#3 -700985821#2 -700985821#1 -700985821#0 -33564043#0 33564036#0 33564036#1 33564038#0 33564038#1 33564038#2 33564038#3 -436876084 47470379#0 47470379#1 47470379#2 47470379#3 35346671#0 35346671#1 35346671#2 35346671#3 35346671#4 35346671#5 35346671#6 37583634#16 302357641#0 302357641#1 -37583622 37583629#0 37583629#1 302357638#0 302357638#1 -37583616#1 -37583616#0 302357639#0 302357639#1 302357639#2 302357572#0 302357572#1 -37583628#1 -37583628#0 37583619#0 37583619#1 37583619#2 35350273#0 35350273#1 35350273#2 -35350273#2"/>
    </vehicle>
    <vehicle id="12" depart="12.00">
        <route edges="587969883#1 587969882#0 587969882#1 56660712#0 56660712#1 56660712#2 56660712#3 56660712#4 56660712#5 56660712#6 -56660726 56660774#0 56660774#1 56660765 56660744#0 56660744#1 302520560#0 302520560#1 -38013966#1 -38013966#0 35346736 302357746#0 302357746#1 35351074 35348664#0 35348664#1 -38013963 35347407 -435252119 -38011023 38011021#0 38011021#1 731227798#0 731227798#1 731227795#0 731227795#1 731227792#0 731227792#1 33562391#0 33562391#1 33562391#2 37583636#0 37583636#1 37583634#0 37583634#1 37583634#2 37583634#3 37583634#4 -37583634#4"/>
    </vehicle>
    <vehicle id="13" depart="13.00">
        <route edges="-35347892#1"/>
    </vehicle>
    <vehicle id="14" depart="14.00">
        <route edges="38009772#6 38009772#7 38009772#8 38009772#9 38009772#10 38009772#11 38009772#12 38009772#13 38009772#14 38009772#15 38009772#16 38009772#17 38009772#18 38009772#19 38009772#20 38009772#21 473441984 117597589#0 117597589#1 38014004#0 38014004#1 38014003#0 38014003#1 493155661 163045288#0 163045288#1 163045288#2 163045288#3 35347614#0 35347614#1 35347614#2 38011023 435252119 38013962#0 38013962#1 38013963 118619654#0 118619654#1 33562390#0 33562390#1 33562390#2 33562390#3 38013966#0 38013966#1 56660761 302520559#0 302520559#1 56660749 56660780#0 56660780#1 56660726 56660728#0 56660728#1 505871538#0 505871538#1 505871538#2 56660757 56660772 587969883#0 587969883#1 -37583575#39 -37583575#38 -37583575#37 35346250#0 35346250#1 35346250#2 35346250#3 35348526#0 35348526#1 35348526#2 35348526#3"/>
    </vehicle>
    <vehicle id="15" depart="15.00">
        <route edges="37583575#35 37583575#36 37583575#37 37583575#38 37583575#39 587969882#0 587969882#1 56660712#0 56660712#1 56660712#2 56660712#3 56660712#4 56660712#5 56660712#6 -56660726 56660774#0 56660774#1 56660765 56660744#0 56660744#1 302520560#0 302520560#1 -38013966#1 -38013966#0 35346736 302357746#0 302357746#1 35351074 35348664#0 35348664#1 -38013963 35347407 -435252119 -38011023 38011021#0 38011021#1 731227798#0 731227798#1 731227795#0 731227795#1 731227792#0 731227792#1 33562391#0 33562391#1 33562391#2 37583636#0 37583636#1 37583634#0 37583634#1 37583634#2 37583634#3 37583634#4 37583634#5 37583518#0 37583518#1 -37583509 37583524 -37583511 37583514"/>
    </vehicle>
    <vehicle id="16" depart="16.00">
        <route edges="35346077 -35346077 -37583527 37583520 37583511 -37583524 37583509 -37583518#1 -37583518#0 -37583634#5 -37583634#4 -37583634#3 -37583634#2 -37583634#1 -37583634#0 37583635#0 37583635#1 38009925#0 38009925#1 731227790#0 731227790#1 731227790#2 731227790#3 161268513 731227793#0 731227793#1 473571254 473571252 731227792#0 731227792#1"/>
    </vehicle>
    <vehicle id="17" depart="17.00">
        <route edges="-56660760#7 -56660760#6 -56660760#5 -56660760#4 -56660760#3 -56660760#2 -56660760#1 -56660760#0 -56660775#5 -56660775#4 -56660775#3 -56660775#2 -56660775#1 -56660775#0 -56660715#2 -56660715#1 -56660715#0 -874442317#1 -874442317#0 874442319#0 874442319#1 874442316#0 874442316#1 -56660770#2 -56660770#1 -56660770#0 601502111#0 601502111#1 601502111#2 184166310#0 184166310#1 184166310#2 493155719#0 493155719#1 493155719#2 493155719#3 163045288#0 163045288#1 163045288#2 163045288#3 163045288#4 731227798#0 731227798#1 731227795#0 731227795#1 731227792#0 731227792#1 33562391#0 33562391#1 33562391#2 37583636#0 37583636#1 37583634#0 37583634#1 37583634#2 37583634#3 37583634#4 37583634#5 37583634#6 37583634#7 37583634#8 37583634#9 37583634#10 37583634#11 37583634#12 37583634#13 37583634#14 37583634#15 37583634#16 302357641#0 302357641#1 -37583622 37583629#0 37583629#1 302357638#0 302357638#1 -37583616#1 -37583616#0 302357639#0 302357639#1 302357639#2 302357572#0 302357572#1 -37583628#1 -37583628#0 37583619#0 37583619#1 37583619#2 35350273#0 35350273#1 -35350440#1 -35350440#0 -35349651 35346669"/>
    </vehicle>
    <vehicle id="18" depart="18.00">
        <route edges="37583634#15 -37583634#15 -37583634#14 -37583634#13 -37583634#12 -37583634#11 -37583634#10 -37583634#9 -37583634#8 -37583634#7 -37583634#6 -37583634#5 -37583634#4 -37583634#3 -37583634#2 -37583634#1 -37583634#0 37583635#0 37583635#1 38009925#0 38009925#1 38009923#0 38009923#1 38009927#0 38009927#1 38009927#2 38009927#3 -35351104#3 -35351104#2 -35351104#1 -35351104#0 35349089"/>
    </vehicle>
    <vehicle id="19" depart="19.00">
        <route edges="38011021#0 38011021#1 731227798#0 731227798#1 731227795#0 731227795#1 731227792#0 731227792#1 33562391#0 33562391#1 33562391#2 731227791#0 38009925#0 38009925#1 38009923#0 38009923#1 38009927#0 38009927#1 38009927#2 38009927#3 -35351104#3 -35351104#2 -35351104#1 -35351104#0 -35348831 -35347258 35347324"/>
    </vehicle>
    <vehicle id="20" depart="20.00">
        <route edges="35352325#1 35352325#2 35352325#3 -35352325#3 -35352325#2 -35352325#1 -35352325#0 -37583575#5 -37583575#4 -37583575#3 -37583575#2 -37583575#1 -37583575#0 -505867954#1 -505867954#0 -37583581#9 -37583581#8 -37583581#7 -37583581#6 -37583581#5 -37583581#4 -37583581#3 -37583581#2 -37583581#1 -37583581#0 -731227794 -37583577#1 -37583577#0 731227792#0 731227792#1 33562391#0 33562391#1 33562391#2 37583636#0 37583636#1 37583634#0 37583634#1 37583634#2 37583634#3 37583634#4 37583634#5 37583634#6 37583634#7 37583634#8 37583634#9 37583634#10 37583634#11 37583634#12 37583634#13 37583634#14 37583634#15 37583634#16 302357641#0 302357641#1 -37583622 37583629#0 37583629#1 302357638#0 302357638#1 -37583616#1 -37583616#0 302357639#0 302357639#1 302357639#2 302357572#0 302357572#1 -37583628#1 -37583628#0 37583619#0 36827834#0 36827834#1 -35345240#1"/>
    </vehicle>
    <vehicle id="21" depart="21.00">
        <route edges="-37583514 37583511 -37583528#2"/>
    </vehicle>
    <vehicle id="22" depart="22.00">
        <route edges="-35346969 37583533#0 37583533#1 -37583630#3 -37583630#2 -37583630#1 -37583630#0 -37583619#5 -37583619#4 -37583619#3 -37583619#2 -37583619#1 -37583619#0 37583628#0 37583628#1 -302357572#1 -302357572#0 -302357639#2 -302357639#1 -302357639#0 37583616#0 37583616#1 -302357638#1 -302357638#0 -37583629#1 -37583629#0 37583622 -302357641#1 -302357641#0 -37583634#16 -37583634#15 -37583634#14 -37583634#13 -37583634#12 -37583634#11 -37583634#10 -37583634#9 -37583634#8 -37583634#7 -37583516#1 -37583516#0 37583508 -37583507"/>
    </vehicle>
    <vehicle id="23" depart="23.00">
        <route edges="-35348056 -160119786#3 -160119786#2 -160119786#1 -160119786#0 -302357638#1 -302357638#0 -37583629#1 -37583629#0 37583622 -37583522#4 -37583522#3"/>
    </vehicle>
    <vehicle id="24" depart="24.00">
        <route edges="35349719#0 35349719#1 35349719#2 -35349719#2 -35349719#1 -35349719#0 56660720#0 56660720#1 56660720#2 56660720#3 56660720#4 56660720#5 56660754#0 56660754#1 56660744#0 56660744#1 302520560#0 302520560#1 -38013966#1 -38013966#0"/>
    </vehicle>
    <vehicle id="25" depart="25.00">
        <route edges="-56660737#13 -56660737#12 -56660737#11 -56660737#10 -56660737#9 -56660737#8 -56660737#7 -56660737#6 -56660737#5 -56660737#4 -56660737#3 -56660737#2 -56660737#1 -56660737#0 -37583575#21 -37583575#20 -37583575#19 -37583575#18 -37583575#17 -37583575#16 -37583575#15 -37583575#14 -37583575#13 -37583575#12 -37583575#11 -37583575#10 -37583575#9 -37583575#8 -37583575#7 -37583575#6 -37583575#5 -37583575#4 -37583575#3 -37583575#2 -37583575#1 -37583575#0 -505867954#1 -505867954#0 -37583581#9 -37583581#8 -37583581#7 -37583581#6 -37583581#5 -37583581#4 -37583581#3 -37583581#2 -37583581#1 -37583581#0 -731227794 -37583577#1 -37583577#0 731227792#0 731227792#1 33562391#0 33562391#1 33562391#2 37583636#0 37583636#1 37583634#0 37583634#1 37583634#2 37583634#3 37583634#4 37583634#5 37583634#6 37583634#7 37583634#8 37583634#9 37583634#10 37583634#11 37583634#12 37583634#13 37583634#14 37583634#15 37583634#16 302357641#0 302357641#1 -37583622 37583629#0 37583629#1 302357638#0 302357638#1 -36827242#2 -36827242#1 -36827242#0"/>
    </vehicle>
    <vehicle id="26" depart="26.00">
        <route edges="-37583526#1 -37583526#0 -37583629#0 37583622 -302357641#1 -302357641#0 -37583634#16 -37583634#15 -37583634#14 -37583634#13 -37583634#12 -37583634#11 -37583634#10 -37583634#9 -37583634#8 -37583634#7 -37583634#6 -37583634#5 -37583634#4 -37583634#3 -37583634#2 -37583634#1 -37583634#0 37583635#0 37583635#1 38009925#0 38009925#1 731227790#0 731227790#1 731227790#2 731227790#3 161268513 731227793#0 731227793#1 731227796#0 731227796#1 473571253#0 473571253#1 731227797#0 38011017#0 38011017#1 35347614#0 35347614#1 35347614#2 38011023 435252119 38013962#0 38013962#1 38013963 118619654#0 118619654#1 33562390#0 33562390#1 33562390#2 33562390#3 38013966#0 38013966#1 56660761 302520559#0 302520559#1 56660749 56660780#0 56660780#1 56660726 56660728#0 56660728#1 505871538#0 505871538#1 505871538#2 56660757 56660751#0 56660751#1 56660768"/>
    </vehicle>
    <vehicle id="27" depart="27.00">
        <route edges="35350273#1 -35350273#1 -35350273#0 37583619#3 37583619#4 37583619#5 37583630#0 37583630#1 37583630#2 37583630#3 -37583533#1 -37583533#0 35348617"/>
    </vehicle>
    <vehicle id="28" depart="28.00">
        <route edges="-35351038 35351038 -35347243 -35352277 35351104#0 35351104#1 35351104#2 35351104#3 -38009927#3 -38009927#2 -38009927#1 -38009927#0 38009924#0 38009924#1 38009926#0 38009926#1 37583636#0 37583636#1 37583634#0 37583634#1 37583634#2 37583634#3 37583634#4 37583634#5 37583518#0 37583518#1 -37583509 37583524 -37583511 37583514"/>
    </vehicle>
    <vehicle id="29" depart="29.00">
        <route edges="-35350440#0 35350440#0 35350440#1 -35350273#1 -35350273#0 -37583619#2 -37583619#1 -37583619#0 37583628#0 37583628#1 -302357572#1 -302357572#0 -302357639#2 -302357639#1 -302357639#0 37583616#0 37583616#1 -302357638#1 -302357638#0 -37583629#1 -37583629#0 37583622 -302357641#1 -302357641#0 -37583634#16 -37583634#15 -37583634#14 -37583634#13 -37583634#12 -37583634#11 -37583634#10 -37583634#9 -37583634#8 -37583634#7 -37583634#6 -37583634#5 -37583634#4 -37583634#3 -37583634#2 -37583634#1 -37583634#0 37583635#0 37583635#1 38009925#0 38009925#1 731227790#0 731227790#1 731227790#2 731227790#3 161268513 731227793#0 731227793#1 731227796#0 731227796#1 473571253#0 473571253#1 731227797#0 38011017#0 38011017#1 35347614#0 35347614#1 35347614#2 38011023 435252119 38013962#0 38013962#1 38013963 118619654#0 118619654#1 33562390#0 33562390#1 33562390#2 33562390#3 38013966#0 38013966#1 56660761 302520559#0 302520559#1 56660776#0 56660776#1 56660756#0 56660756#1 56660756#2 56660756#3 56660771#0 56660771#1 56660771#2 56660771#3 56660771#4 56660771#5 56660771#6 56660771#7 56660771#8 56660771#9 56660771#10 56660771#11 -56660715#2"/>
    </vehicle>
    <vehicle id="30" depart="30.00">
        <route edges="831784835#0 831784835#1 831784835#2 831784835#3 35346671#1 35346671#2 35346671#3 35346671#4 35346671#5 35346671#6 37583634#16 302357641#0 302357641#1 -37583622 37583629#0 37583629#1 302357638#0 302357638#1 160119786#0 160119786#1 160119786#2 160119786#3 35348056 35349912#0"/>
    </vehicle>
    <vehicle id="31" depart="31.00">
        <route edges="35346671#0 -35346671#0 -47470379#3 -47470379#2 -47470379#1 -47470379#0 436876084 33564039#0 33564039#1 33564042#0 33564042#1 731227788#0 731227788#1 731227788#2 290068972#0 290068972#1 33564032#1 33564032#2 -33564030#3 -33564030#2 -33564030#1 35346257#0 35346257#1 35346257#2 35346257#3 35346257#4 35346257#5 35346257#6 35346257#7 35346257#8 35346257#9 -35351104#3 -35351104#2 -35351104#1 -35351104#0 35352277 35347243 35352194"/>
    </vehicle>
    <vehicle id="32" depart="32.00">
        <route edges="38009772#18 38009772#19 38009772#20 38009772#21 473441984 117597589#0 117597589#1 38014004#0 38014004#1 38014003#0 38014003#1 493155661 163045288#0 163045288#1 163045288#2 163045288#3 163045288#4 731227798#0 731227798#1 731227795#0 731227795#1 731227792#0 731227792#1 33562391#0 33562391#1 33562391#2 37583636#0 37583636#1 37583634#0 37583634#1 37583634#2 37583634#3 37583634#4 37583634#5 37583518#0 37583518#1 37583528#0 37583528#1 37583528#2"/>
    </vehicle>
    <vehicle id="33" depart="33.00">
        <route edges="-37583515#1 -37583515#0 36827242#1 36827242#2 -37583616#1 -37583616#0 302357639#0 302357639#1 -302357639#1"/>
    </vehicle>
    <vehicle id="34" depart="34.00">
        <route edges="-37583630#4 -37583630#3 -37583630#2 -37583630#1 -37583630#0 -37583619#5 -37583619#4 -37583619#3 -37583619#2 -37583619#1 -37583619#0 37583628#0 37583628#1 -302357572#1 -302357572#0 -302357639#2 -302357639#1 -302357639#0 37583616#0 37583616#1 -302357638#1 -302357638#0 -37583629#1 -37583629#0 37583622 -302357641#1 -302357641#0 -37583634#16 -37583634#15 -37583634#14 -37583634#13 -37583634#12 -37583634#11 -37583634#10 -37583634#9 -37583634#8 -37583634#7 -37583634#6 -37583634#5 -37583521#3 -37583521#2 -37583521#1"/>
    </vehicle>
    <vehicle id="35" depart="35.00">
        <route edges="-36835332#0 -36835332#1 36835331#0 36835331#1 36827242#2 -302357638#1 -302357638#0 -37583629#1 -37583629#0 37583622 -302357641#1 -302357641#0 -37583634#16 -37583634#15 -37583634#14 -37583634#13 -37583634#12 -37583634#11 -37583634#10 -37583634#9 -37583634#8 -37583634#7 -37583634#6 -37583634#5 -37583634#4 -37583634#3 -37583634#2 -37583634#1 -37583634#0 37583635#0 37583635#1 38009925#0 38009925#1 731227790#0 731227790#1 731227790#2 731227790#3 161268513 731227793#0 731227793#1 731227796#0 731227796#1 473571253#0 473571253#1 731227797#0 38011017#0 38011017#1 35347614#0 35347614#1 35347614#2 38011023 435252119 38013962#0 38013962#1 38013963 118619654#0 118619654#1 33562390#0 33562390#1 33562390#2 33562390#3 38013966#0 38013966#1 56660761 302520559#0 302520559#1 56660776#0 56660776#1 56660756#0 56660756#1 56660756#2 56660756#3 56660771#0 56660771#1 56660771#2 56660771#3 56660771#4 56660771#5 56660771#6 56660771#7"/>
    </vehicle>
    <vehicle id="36" depart="36.00">
        <route edges="38014008 849000144#0 849000144#1 493155661 163045288#0 163045288#1 163045288#2 163045288#3 163045288#4 731227798#0 731227798#1 731227795#0 731227795#1 37583577#0 37583577#1 731227794 37583581#0 37583581#1 -37583581#1 -37583581#0"/>
    </vehicle>
    <vehicle id="37" depart="37.00">
        <route edges="35350353 35345639#0 35345639#1 -35350273#2 -35350273#1 -35350273#0 -37583619#2 -37583619#1 -37583619#0 37583628#0 37583628#1 -302357572#1 -302357572#0 -302357639#2 -302357639#1 -302357639#0 37583616#0 37583616#1 -302357638#1 -302357638#0 -37583629#1 -37583629#0 37583622 -302357641#1 -302357641#0 -37583634#16 -37583634#15 -37583634#14 -37583634#13 -37583634#12 -37583634#11 -37583634#10 -37583634#9 -37583634#8 -37583634#7 -37583634#6 -37583634#5 -37583634#4 -37583634#3 -37583634#2 -37583634#1 -37583634#0 37583635#0 37583635#1 38009925#0 38009925#1 731227790#0 731227790#1 731227790#2 731227790#3 161268513 731227793#0 731227793#1 731227796#0 731227796#1 473571253#0 473571253#1 731227797#0 38011017#0 38011017#1 35347614#0 35347614#1 35347614#2 38011023 435252119 38013962#0 38013962#1 38013963 118619654#0 118619654#1 33562390#0 33562390#1 33562390#2 33562390#3 38013966#0 38013966#1 56660761 302520559#0 302520559#1 56660749 56660780#0 56660780#1 56660726 56660728#0 56660728#1 505871538#0 505871538#1 505871538#2 56660741#0 56660741#1 56660767#0 56660767#1 56660767#2 56660748 903627545 56660717#0 56660717#1 56660717#2 -56660739#3 -56660739#2 -56660739#1 -56660739#0"/>
    </vehicle>
    <vehicle id="38" depart="38.00">
        <route edges="56660720#1 56660720#2 56660720#3 56660720#4 56660720#5 56660754#0 56660754#1 56660744#0 56660744#1 302520560#0 302520560#1 -38013966#1 -38013966#0 35346736 302357746#0 302357746#1 35351074 35348664#0 35348664#1 -38013963 35347407 -435252119 -38011023 38011021#0 38011021#1 38011022#0 38011022#1 38011019#0 38011019#1 -160130234#1 -160130234#0 160130234#0 160130234#1"/>
    </vehicle>
    <vehicle id="39" depart="39.00">
        <route edges="-37583526#1 -37583526#0 37583629#1 302357638#0 302357638#1 -36827242#2 -37583515#2 -37583515#1"/>
    </vehicle>
    <vehicle id="40" depart="40.00">
        <route edges="35346880#0 35346880#1 -35346880#1 -35346880#0 -35347883#1 -35347883#0 -35352019 -35349089 35351104#0 35351104#1 35351104#2 35351104#3 -38009927#3 -38009927#2 -38009927#1 -38009927#0 38009924#0 38009924#1 38009926#0 38009926#1 37583636#0 37583636#1 37583634#0 37583634#1 37583634#2 37583634#3 37583634#4 37583634#5 37583634#6 37583634#7 37583634#8 37583634#9 37583634#10 37583634#11 37583634#12 37583634#13 37583634#14 37583634#15 37583634#16 302357641#0 302357641#1 37583512#0 37583512#1 -37583519"/>
    </vehicle>
    <vehicle id="41" depart="41.00">
        <route edges="35347883#1 35346880#0 35346880#1 35347080#0 35347080#1 35347080#2 35347080#3 161268513 731227793#0 731227793#1 473571254 473571252 37583577#0 37583577#1 731227794 37583581#0 37583581#1 37583581#2 37583581#3 37583581#4 37583581#5 37583581#6 37583581#7 37583581#8 37583581#9 505867954#0"/>
    </vehicle>
    <vehicle id="42" depart="42.00">
        <route edges="-700985820#17 -700985820#16 -700985818#1 -700985818#0 -33564043#1 -33564043#0 33564036#0 33564036#1 33564038#0 33564038#1 33564038#2 33564038#3 -436876084 47470379#0 47470379#1 47470379#2 47470379#3 35346671#0 35346671#1 35346671#2 35346671#3 35346671#4 35346671#5 35346671#6 37583634#16 302357641#0 302357641#1 -37583622 37583629#0 37583629#1 302357638#0 302357638#1 -37583616#1 -37583616#0 302357639#0 302357639#1 302357639#2 302357572#0 302357572#1 -36827701#3 -36827701#2 -36827701#1 -36827701#0"/>
    </vehicle>
    <vehicle id="44" depart="44.00">
        <route edges="-35347883#1 -35347883#0 -35352019 -35349089 35352277 35347243 35352194 -35348604 -35350453 -35345346"/>
    </vehicle>
    <vehicle id="45" depart="45.00">
        <route edges="-35348526#3 -35348526#2 -35348526#1 -35348526#0 -35346250#3 -35346250#2 -35346250#1 -35346250#0 37583575#37 37583575#38 37583575#39 587969882#0 587969882#1 56660712#0 56660712#1 56660712#2 56660712#3 56660712#4 56660712#5 56660712#6 -56660726 56660774#0 56660774#1 56660765 56660744#0 56660744#1 302520560#0 302520560#1 -38013966#1 -38013966#0 35346736 302357746#0 302357746#1 35351074 35348664#0 35348664#1 -38013963 35347407 -435252119 -38011023 38011021#0 38011021#1 731227798#0 731227798#1 731227795#0 731227795#1 731227792#0 731227792#1 33562391#0 33562391#1 33562391#2 37583636#0 37583636#1 37583634#0 37583634#1 37583634#2 37583634#3 37583634#4 37583634#5 37583634#6 37583634#7 37583634#8 37583634#9 37583634#10 37583634#11 37583634#12 37583634#13 37583634#14 37583634#15 37583634#16 302357641#0 302357641#1 -37583622 37583629#0 37583629#1 302357638#0 302357638#1 -37583616#1 -37583616#0 302357639#0 302357639#1 302357639#2 302357572#0 302357572#1 -37583628#1 -37583628#0 37583619#0 37583619#1 37583619#2 35350273#0 35350273#1 -35350440#1 -35350440#0 -35346669 35349651"/>
    </vehicle>
    <vehicle id="46" depart="46.00">
        <route edges="37583560#0 37583560#1 35348664#0 35348664#1 -38013963 35347407 -435252119 -38011023 38011021#0 38011021#1 731227798#0 731227798#1 731227795#0 731227795#1 731227792#0 731227792#1 33562391#0 33562391#1 33562391#2 731227791#0 731227791#1 731227791#2 731227791#3 731227791#4 731227789#0 731227789#1 731227789#2 225877659#0 225877659#1 225877659#2 302916794#0 302916794#1 33564038#2 33564038#3 -436876084 47470379#0 47470379#1 47470379#2 47470379#3 35346671#0 -831784835#3 -831784835#2 -831784835#1 -831784835#0"/>
    </vehicle>
    <vehicle id="47" depart="47.00">
        <route edges="-35346637#2 -35346637#1 -35346637#0 225877659#2 302916794#0 302916794#1 156417306#0 33564042#0 33564042#1 731227788#0 731227788#1 731227788#2 290068972#0 290068972#1 290068968#0 290068968#1 290068968#2 225877658#0 225877658#1 731227790#0 731227790#1 731227790#2 731227790#3 161268513 731227793#0 731227793#1 731227796#0 731227796#1 473571253#0 473571253#1 731227797#0 38011017#0 38011017#1 35347614#0 35347614#1 35347614#2 38011023 435252119 38013962#0 38013962#1 38013963 118619654#0 118619654#1 33562390#0 33562390#1 33562390#2 33562390#3 38013966#0 38013966#1 56660761 302520559#0 302520559#1 56660749 56660780#0 56660780#1 56660726 56660728#0 56660728#1 505871538#0 505871538#1 505871538#2 56660757 56660772 56660753 56660712#0 56660712#1 56660712#2 56660712#3 56660712#4 56660712#5 56660712#6 -56660726"/>
    </vehicle>
    <vehicle id="48" depart="48.00">
        <route edges="874442317#0 874442317#1 -874442317#1 -874442317#0 874442319#0 874442319#1 874442316#0 874442316#1 -56660770#2 -56660770#1 -56660770#0 601502111#0 601502111#1 601502111#2 184166310#0 184166310#1 184166310#2 493155719#0 493155719#1 493155719#2 493155719#3 163045288#0 163045288#1 163045288#2 163045288#3 163045288#4 731227798#0 731227798#1 731227795#0 731227795#1 731227792#0 731227792#1 33562391#0 33562391#1 33562391#2 37583636#0 37583636#1 37583634#0 37583634#1 37583634#2 37583634#3 37583634#4 37583634#5 37583634#6 37583634#7 37583634#8 37583634#9 37583634#10 37583634#11 37583634#12 37583634#13 37583634#14 37583634#15 37583634#16 302357641#0 302357641#1 -37583622 37583629#0 37583629#1 302357638#0 302357638#1 -37583616#1 -37583616#0 302357639#0 302357639#1 302357639#2 302357572#0 302357572#1 -37583628#1 -37583628#0 37583619#0 36827834#0 36827834#1 35345240#0 35345240#1"/>
    </vehicle>
    <vehicle id="49" depart="49.00">
        <route edges="731227789#0 731227789#1 731227789#2 225877659#0 225877659#1 225877659#2 302916794#0 302916794#1 156417306#0 33564042#0 33564042#1 731227788#0 731227788#1 731227788#2 290068972#0 290068972#1 290068968#0 290068968#1 290068968#2 225877658#0 225877658#1 731227790#0 731227790#1 731227790#2 731227790#3 161268513 731227793#0 731227793#1 731227796#0 731227796#1 473571253#0 473571253#1 731227797#0 38011017#0 38011017#1 35347614#0 35347614#1 35347614#2 38011023 435252119 38013962#0 38013962#1 38013963 118619654#0 118619654#1 38013965#0 38013965#1 38013964#0 38013964#1 38013964#2 38013964#3 38013964#4 38013964#5 38013964#6"/>
    </vehicle>
    <vehicle id="50" depart="50.00">
        <route edges="-148785872#1 -148785872#0 117597590#0 117597590#1 117597590#2 117597590#3 -117597590#3 -117597590#2 -117597590#1 -117597590#0 148785872#0 148785872#1 148785872#2 148785873#0 148785873#1 473571254 473571252 731227792#0 731227792#1 33562391#0 33562391#1 33562391#2 37583636#0 37583636#1 37583634#0 37583634#1 37583634#2 37583634#3 -37583513#1 -37583513#0 -37583508 37583507"/>
    </vehicle>
    <vehicle id="51" depart="51.00">