<?xml version="1.0" encoding="UTF-8"?>

<!-- generated on 2024-03-18 13:46:02.518506 by randomTrips.py v1_19_0+0000-baa66a0f364
<configuration>
    <net-file value="commerce.net.xml"/>
    <route-file value="commerce.rou.xml"/>
    <length value="True"/>
    <end value="100.0"/>
</configuration>
-->

<routes xmlns:xsi="http://www.w3.org/2001/XMLSchema-instance" xsi:noNamespaceSchemaLocation="http://sumo.dlr.de/xsd/routes_file.xsd">
    <trip id="0" depart="0.00" from="35349886#21" to="-299677587#2"/>
    <trip id="1" depart="1.00" from="-37583528#2" to="-36827701#2"/>
    <trip id="2" depart="2.00" from="37583509" to="35351533#2"/>
    <trip id="3" depart="3.00" from="47470242" to="-35347243"/>
    <trip id="4" depart="4.00" from="118619654#1" to="-302357639#0"/>
    <trip id="5" depart="5.00" from="-37583507" to="302520559#0"/>
    <trip id="6" depart="6.00" from="-300671859#2" to="-35352316#1"/>
    <trip id="7" depart="7.00" from="35350273#3" to="35346257#8"/>
    <trip id="8" depart="8.00" from="-37583507" to="35347892#8"/>
    <trip id="9" depart="9.00" from="37583575#4" to="-1168776171"/>
    <trip id="10" depart="10.00" from="37583575#33" to="35352316#8"/>
    <trip id="11" depart="11.00" from="-38009839#3" to="-35350273#2"/>
    <trip id="12" depart="12.00" from="587969883#1" to="-37583634#4"/>
    <trip id="13" depart="13.00" from="-35347892#1" to="-35347892#1"/>
    <trip id="14" depart="14.00" from="38009772#6" to="35348526#3"/>
    <trip id="15" depart="15.00" from="37583575#35" to="37583514"/>
    <trip id="16" depart="16.00" from="35346077" to="731227792#1"/>
    <trip id="17" depart="17.00" from="-56660760#7" to="35346669"/>
    <trip id="18" depart="18.00" from="37583634#15" to="35349089"/>
    <trip id="19" depart="19.00" from="38011021#0" to="35347324"/>
    <trip id="20" depart="20.00" from="35352325#1" to="-35345240#1"/>
    <trip id="21" depart="21.00" from="-37583514" to="-37583528#2"/>
    <trip id="22" depart="22.00" from="-35346969" to="-37583507"/>
    <trip id="23" depart="23.00" from="-35348056" to="-37583522#3"/>
    <trip id="24" depart="24.00" from="35349719#0" to="-38013966#0"/>
    <trip id="25" depart="25.00" from="-56660737#13" to="-36827242#0"/>
    <trip id="26" depart="26.00" from="-37583526#1" to="56660768"/>
    <trip id="27" depart="27.00" from="35350273#1" to="35348617"/>
    <trip id="28" depart="28.00" from="-35351038" to="37583514"/>
    <trip id="29" depart="29.00" from="-35350440#0" to="-56660715#2"/>
    <trip id="30" depart="30.00" from="831784835#0" to="35349912#0"/>
    <trip id="31" depart="31.00" from="35346671#0" to="35352194"/>
    <trip id="32" depart="32.00" from="38009772#18" to="37583528#2"/>
    <trip id="33" depart="33.00" from="-37583515#1" to="-302357639#1"/>
    <trip id="34" depart="34.00" from="-37583630#4" to="-37583521#1"/>
    <trip id="35" depart="35.00" from="-36835332#0" to="56660771#7"/>
    <trip id="36" depart="36.00" from="38014008" to="-37583581#0"/>
    <trip id="37" depart="37.00" from="35350353" to="-56660739#0"/>
    <trip id="38" depart="38.00" from="56660720#1" to="160130234#1"/>
    <trip id="39" depart="39.00" from="-37583526#1" to="-37583515#1"/>
    <trip id="40" depart="40.00" from="35346880#0" to="-37583519"/>
    <trip id="41" depart="41.00" from="35347883#1" to="505867954#0"/>
    <trip id="42" depart="42.00" from="-700985820#17" to="-36827701#0"/>
    <trip id="43" depart="43.00" from="874442317#1" to="302916795#0"/>
    <trip id="44" depart="44.00" from="-35347883#1" to="-35345346"/>
    <trip id="45" depart="45.00" from="-35348526#3" to="35349651"/>
    <trip id="46" depart="46.00" from="37583560#0" to="-831784835#0"/>
    <trip id="47" depart="47.00" from="-35346637#2" to="-56660726"/>
    <trip id="48" depart="48.00" from="874442317#0" to="35345240#1"/>
    <trip id="49" depart="49.00" from="731227789#0" to="38013964#6"/>
    <trip id="50" depart="50.00" from="-148785872#1" to="37583507"/>
    <trip id="51" depart="51.00" from="35351533#2" to="35345639#0"/>
    <trip id="52" depart="52.00" from="-37583526#1" to="35349912#1"/>
    <trip id="53" depart="53.00" from="-35348604" to="117597589#1"/>
    <trip id="54" depart="54.00" from="163045287#1" to="606898109"/>
    <trip id="55" depart="55.00" from="38014008" to="-37583519"/>
    <trip id="56" depart="56.00" from="302916795#0" to="-35351104#0"/>
    <trip id="57" depart="57.00" from="56660715#2" to="38014008"/>
    <trip id="58" depart="58.00" from="-37583581#2" to="35349886#21"/>
    <trip id="59" depart="59.00" from="35348617" to="-35349912#4"/>
    <trip id="60" depart="60.00" from="37583519" to="35346077"/>
    <trip id="61" depart="61.00" from="37583526#1" to="35345240#1"/>
    <trip id="62" depart="62.00" from="-1163968781#1" to="-37583619#3"/>
    <trip id="63" depart="63.00" from="-160130234#1" to="56660760#0"/>
    <trip id="64" depart="64.00" from="38014010" to="37583635#0"/>
    <trip id="65" depart="65.00" from="-37583619#3" to="-35346257#8"/>
    <trip id="66" depart="66.00" from="38014008" to="56660775#5"/>
    <trip id="67" depart="67.00" from="-35347087#1" to="233882221#2"/>
    <trip id="68" depart="68.00" from="-35346671#0" to="37583522#0"/>
    <trip id="69" depart="69.00" from="37583521#1" to="-35349564#13"/>
    <trip id="70" depart="70.00" from="25331586" to="35346582"/>
    <trip id="71" depart="71.00" from="-37583526#1" to="38014010"/>
    <trip id="72" depart="72.00" from="145613661" to="-36827242#0"/>
    <trip id="73" depart="73.00" from="35346077" to="37583514"/>
    <trip id="74" depart="74.00" from="-35352325#1" to="-37583575#39"/>
    <trip id="75" depart="75.00" from="874442316#1" to="35350353"/>
    <trip id="76" depart="76.00" from="156417306#3" to="33562391#1"/>
    <trip id="77" depart="77.00" from="-35349084" to="-36827835#1"/>
    <trip id="78" depart="78.00" from="-38009777" to="35347892#7"/>
    <trip id="79" depart="79.00" from="-37583515#1" to="-36827701#0"/>
    <trip id="80" depart="80.00" from="-35346671#3" to="35349708#1"/>
    <trip id="81" depart="81.00" from="-37583515#1" to="56660712#1"/>
    <trip id="82" depart="82.00" from="38009927#5" to="-35346671#0"/>
    <trip id="83" depart="83.00" from="-37583516#0" to="35351038"/>
    <trip id="84" depart="84.00" from="-37583506" to="-35349651"/>
    <trip id="85" depart="85.00" from="56660740#0" to="35347080#2"/>
    <trip id="86" depart="86.00" from="25331586" to="37583575#15"/>
    <trip id="87" depart="87.00" from="37583575#36" to="-35352027"/>
    <trip id="88" depart="88.00" from="-35347892#8" to="1168776169#1"/>
    <trip id="89" depart="89.00" from="145613661" to="163045288#1"/>
    <trip id="90" depart="90.00" from="37583506" to="35351318"/>
    <trip id="91" depart="91.00" from="731227795#0" to="-35347892#3"/>
    <trip id="92" depart="92.00" from="-700985821#3" to="-37583634#6"/>
    <trip id="93" depart="93.00" from="38011021#0" to="-37583515#1"/>
    <trip id="94" depart="94.00" from="-35352316#0" to="156417308#0"/>
    <trip id="95" depart="95.00" from="118619654#0" to="-37583524"/>
    <trip id="96" depart="96.00" from="-37583520" to="56660739#1"/>
    <trip id="97" depart="97.00" from="160119786#2" to="38013965#1"/>
    <trip id="98" depart="98.00" from="35346669" to="-35345639#0"/>
    <trip id="99" depart="99.00" from="874442321#1" to="38009772#20"/>
</routes>
